* PSpice Model Editor - Version 17.2.0
*$
.model Qbreakn NPN CJE = 15p, BF = 200
*$
* - - - - - - - - - - - - - - - - - - - - - - - - - - - - - - - - - - - - - -
* 10Mhz frequency standard, AT cut, series resonant, Q=25000
.subckt QZS10MEG 1 2
* 
lqz	1	11	2.54647909e-003
cs	11	12	9.94718394e-014
vsin 12 3 SIN 0 1k 16meg 0 1e7 0
rqz	3	2	6.4
cp	1	2	2.48679599e-011
.ends
* - - - - - - - - - - - - - - - - - - - - - - - - - - - - - - - - - - - - - -
* end of library file
*$
* - - - - - - - - - - - - - - - - - - - - - - - - - - - - - - - - - - - - - -
* 100khz frequency standard, DT cut, series resonant, Q=20000
.subckt QZS100K 1 2
*
lqz	1	11	lmod	588.873289
.model	lmod	ind(tc2=3.5e-8)
cs	11	12	4.30148495e-012
Vsin 12 3 sin(0 1k 16M 0.1n 2e+5)
rqz	3	2	18.5k
cp	1	2	1.72059398e-012
.ends
*$
